# DIS package for MODFLOW-2005 generated by Flopy 3.3.5
        30         1        60         1         4         2
  0  0  0  0  0  0  0  0  0  0  0  0  0  0  0  0  0  0  0  0  0  0  0  0  0  0  0  0  0  0
CONSTANT    1.016260E+02                           #delr                          
CONSTANT    1.000000E+02                           #delc                          
CONSTANT    0.000000E+00                           #model_top                     
CONSTANT   -1.016260E+02                           #botm layer 1                  
CONSTANT   -2.032520E+02                           #botm layer 2                  
CONSTANT   -3.048781E+02                           #botm layer 3                  
CONSTANT   -4.065041E+02                           #botm layer 4                  
CONSTANT   -5.081301E+02                           #botm layer 5                  
CONSTANT   -6.097561E+02                           #botm layer 6                  
CONSTANT   -7.113821E+02                           #botm layer 7                  
CONSTANT   -8.130081E+02                           #botm layer 8                  
CONSTANT   -9.146342E+02                           #botm layer 9                  
CONSTANT   -1.016260E+03                           #botm layer 10                 
CONSTANT   -1.117886E+03                           #botm layer 11                 
CONSTANT   -1.219512E+03                           #botm layer 12                 
CONSTANT   -1.321138E+03                           #botm layer 13                 
CONSTANT   -1.422764E+03                           #botm layer 14                 
CONSTANT   -1.524390E+03                           #botm layer 15                 
CONSTANT   -1.626016E+03                           #botm layer 16                 
CONSTANT   -1.727642E+03                           #botm layer 17                 
CONSTANT   -1.829268E+03                           #botm layer 18                 
CONSTANT   -1.930894E+03                           #botm layer 19                 
CONSTANT   -2.032520E+03                           #botm layer 20                 
CONSTANT   -2.134146E+03                           #botm layer 21                 
CONSTANT   -2.235772E+03                           #botm layer 22                 
CONSTANT   -2.337398E+03                           #botm layer 23                 
CONSTANT   -2.439024E+03                           #botm layer 24                 
CONSTANT   -2.540650E+03                           #botm layer 25                 
CONSTANT   -2.642276E+03                           #botm layer 26                 
CONSTANT   -2.743902E+03                           #botm layer 27                 
CONSTANT   -2.845529E+03                           #botm layer 28                 
CONSTANT   -2.947155E+03                           #botm layer 29                 
CONSTANT   -3.048781E+03                           #botm layer 30                 
    100.000000           100  1.000000  SS 
