# BAS6 package for MODFLOW-2005 generated by Flopy 3.3.5
FREE
INTERNAL               1    (60I10) -1 #ibound layer 1                
        -1        -1        -1        -1        -1        -1        -1        -1        -1        -1        -1        -1        -1        -1        -1        -1        -1        -1        -1        -1        -1        -1        -1        -1        -1        -1        -1        -1        -1        -1        -1        -1        -1        -1        -1        -1        -1        -1        -1        -1        -1        -1        -1        -1        -1        -1        -1        -1        -1        -1        -1        -1        -1        -1        -1        -1        -1        -1        -1        -1
INTERNAL               1    (60I10) -1 #ibound layer 2                
         1         1         1         1         1         1         1         1         1         1         1         1         1         1         1         1         1         1         1         1         1         1         1         1         1         1         1         1         1         1         1         1         1         1         1         1         1         1         1         1         1         1         1         1         1         1         1         1         1         1         1         1         1         1         1         1         1         1         1         1
INTERNAL               1    (60I10) -1 #ibound layer 3                
         1         1         1         1         1         1         1         1         1         1         1         1         1         1         1         1         1         1         1         1         1         1         1         1         1         1         1         1         1         1         1         1         1         1         1         1         1         1         1         1         1         1         1         1         1         1         1         1         1         1         1         1         1         1         1         1         1         1         1         1
INTERNAL               1    (60I10) -1 #ibound layer 4                
         1         1         1         1         1         1         1         1         1         1         1         1         1         1         1         1         1         1         1         1         1         1         1         1         1         1         1         1         1         1         1         1         1         1         1         1         1         1         1         1         1         1         1         1         1         1         1         1         1         1         1         1         1         1         1         1         1         1         1         1
INTERNAL               1    (60I10) -1 #ibound layer 5                
         1         1         1         1         1         1         1         1         1         1         1         1         1         1         1         1         1         1         1         1         1         1         1         1         1         1         1         1         1         1         1         1         1         1         1         1         1         1         1         1         1         1         1         1         1         1         1         1         1         1         1         1         1         1         1         1         1         1         1         1
INTERNAL               1    (60I10) -1 #ibound layer 6                
         1         1         1         1         1         1         1         1         1         1         1         1         1         1         1         1         1         1         1         1         1         1         1         1         1         1         1         1         1         1         1         1         1         1         1         1         1         1         1         1         1         1         1         1         1         1         1         1         1         1         1         1         1         1         1         1         1         1         1         1
INTERNAL               1    (60I10) -1 #ibound layer 7                
         1         1         1         1         1         1         1         1         1         1         1         1         1         1         1         1         1         1         1         1         1         1         1         1         1         1         1         1         1         1         1         1         1         1         1         1         1         1         1         1         1         1         1         1         1         1         1         1         1         1         1         1         1         1         1         1         1         1         1         1
INTERNAL               1    (60I10) -1 #ibound layer 8                
         1         1         1         1         1         1         1         1         1         1         1         1         1         1         1         1         1         1         1         1         1         1         1         1         1         1         1         1         1         1         1         1         1         1         1         1         1         1         1         1         1         1         1         1         1         1         1         1         1         1         1         1         1         1         1         1         1         1         1         1
INTERNAL               1    (60I10) -1 #ibound layer 9                
         1         1         1         1         1         1         1         1         1         1         1         1         1         1         1         1         1         1         1         1         1         1         1         1         1         1         1         1         1         1         1         1         1         1         1         1         1         1         1         1         1         1         1         1         1         1         1         1         1         1         1         1         1         1         1         1         1         1         1         1
INTERNAL               1    (60I10) -1 #ibound layer 10               
         1         1         1         1         1         1         1         1         1         1         1         1         1         1         1         1         1         1         1         1         1         1         1         1         1         1         1         1         1         1         1         1         1         1         1         1         1         1         1         1         1         1         1         1         1         1         1         1         1         1         1         1         1         1         1         1         1         1         1         1
INTERNAL               1    (60I10) -1 #ibound layer 11               
         1         1         1         1         1         1         1         1         1         1         1         1         1         1         1         1         1         1         1         1         1         1         1         1         1         1         1         1         1         1         1         1         1         1         1         1         1         1         1         1         1         1         1         1         1         1         1         1         1         1         1         1         1         1         1         1         1         1         1         1
INTERNAL               1    (60I10) -1 #ibound layer 12               
         1         1         1         1         1         1         1         1         1         1         1         1         1         1         1         1         1         1         1         1         1         1         1         1         1         1         1         1         1         1         1         1         1         1         1         1         1         1         1         1         1         1         1         1         1         1         1         1         1         1         1         1         1         1         1         1         1         1         1         1
INTERNAL               1    (60I10) -1 #ibound layer 13               
         1         1         1         1         1         1         1         1         1         1         1         1         1         1         1         1         1         1         1         1         1         1         1         1         1         1         1         1         1         1         1         1         1         1         1         1         1         1         1         1         1         1         1         1         1         1         1         1         1         1         1         1         1         1         1         1         1         1         1         1
INTERNAL               1    (60I10) -1 #ibound layer 14               
         1         1         1         1         1         1         1         1         1         1         1         1         1         1         1         1         1         1         1         1         1         1         1         1         1         1         1         1         1         1         1         1         1         1         1         1         1         1         1         1         1         1         1         1         1         1         1         1         1         1         1         1         1         1         1         1         1         1         1         1
INTERNAL               1    (60I10) -1 #ibound layer 15               
         1         1         1         1         1         1         1         1         1         1         1         1         1         1         1         1         1         1         1         1         1         1         1         1         1         1         1         1         1         1         1         1         1         1         1         1         1         1         1         1         1         1         1         1         1         1         1         1         1         1         1         1         1         1         1         1         1         1         1         1
INTERNAL               1    (60I10) -1 #ibound layer 16               
         1         1         1         1         1         1         1         1         1         1         1         1         1         1         1         1         1         1         1         1         1         1         1         1         1         1         1         1         1         1         1         1         1         1         1         1         1         1         1         1         1         1         1         1         1         1         1         1         1         1         1         1         1         1         1         1         1         1         1         1
INTERNAL               1    (60I10) -1 #ibound layer 17               
         1         1         1         1         1         1         1         1         1         1         1         1         1         1         1         1         1         1         1         1         1         1         1         1         1         1         1         1         1         1         1         1         1         1         1         1         1         1         1         1         1         1         1         1         1         1         1         1         1         1         1         1         1         1         1         1         1         1         1         1
INTERNAL               1    (60I10) -1 #ibound layer 18               
         1         1         1         1         1         1         1         1         1         1         1         1         1         1         1         1         1         1         1         1         1         1         1         1         1         1         1         1         1         1         1         1         1         1         1         1         1         1         1         1         1         1         1         1         1         1         1         1         1         1         1         1         1         1         1         1         1         1         1         1
INTERNAL               1    (60I10) -1 #ibound layer 19               
         1         1         1         1         1         1         1         1         1         1         1         1         1         1         1         1         1         1         1         1         1         1         1         1         1         1         1         1         1         1         1         1         1         1         1         1         1         1         1         1         1         1         1         1         1         1         1         1         1         1         1         1         1         1         1         1         1         1         1         1
INTERNAL               1    (60I10) -1 #ibound layer 20               
         1         1         1         1         1         1         1         1         1         1         1         1         1         1         1         1         1         1         1         1         1         1         1         1         1         1         1         1         1         1         1         1         1         1         1         1         1         1         1         1         1         1         1         1         1         1         1         1         1         1         1         1         1         1         1         1         1         1         1         1
INTERNAL               1    (60I10) -1 #ibound layer 21               
         1         1         1         1         1         1         1         1         1         1         1         1         1         1         1         1         1         1         1         1         1         1         1         1         1         1         1         1         1         1         1         1         1         1         1         1         1         1         1         1         1         1         1         1         1         1         1         1         1         1         1         1         1         1         1         1         1         1         1         1
INTERNAL               1    (60I10) -1 #ibound layer 22               
         1         1         1         1         1         1         1         1         1         1         1         1         1         1         1         1         1         1         1         1         1         1         1         1         1         1         1         1         1         1         1         1         1         1         1         1         1         1         1         1         1         1         1         1         1         1         1         1         1         1         1         1         1         1         1         1         1         1         1         1
INTERNAL               1    (60I10) -1 #ibound layer 23               
         1         1         1         1         1         1         1         1         1         1         1         1         1         1         1         1         1         1         1         1         1         1         1         1         1         1         1         1         1         1         1         1         1         1         1         1         1         1         1         1         1         1         1         1         1         1         1         1         1         1         1         1         1         1         1         1         1         1         1         1
INTERNAL               1    (60I10) -1 #ibound layer 24               
         1         1         1         1         1         1         1         1         1         1         1         1         1         1         1         1         1         1         1         1         1         1         1         1         1         1         1         1         1         1         1         1         1         1         1         1         1         1         1         1         1         1         1         1         1         1         1         1         1         1         1         1         1         1         1         1         1         1         1         1
INTERNAL               1    (60I10) -1 #ibound layer 25               
         1         1         1         1         1         1         1         1         1         1         1         1         1         1         1         1         1         1         1         1         1         1         1         1         1         1         1         1         1         1         1         1         1         1         1         1         1         1         1         1         1         1         1         1         1         1         1         1         1         1         1         1         1         1         1         1         1         1         1         1
INTERNAL               1    (60I10) -1 #ibound layer 26               
         1         1         1         1         1         1         1         1         1         1         1         1         1         1         1         1         1         1         1         1         1         1         1         1         1         1         1         1         1         1         1         1         1         1         1         1         1         1         1         1         1         1         1         1         1         1         1         1         1         1         1         1         1         1         1         1         1         1         1         1
INTERNAL               1    (60I10) -1 #ibound layer 27               
         1         1         1         1         1         1         1         1         1         1         1         1         1         1         1         1         1         1         1         1         1         1         1         1         1         1         1         1         1         1         1         1         1         1         1         1         1         1         1         1         1         1         1         1         1         1         1         1         1         1         1         1         1         1         1         1         1         1         1         1
INTERNAL               1    (60I10) -1 #ibound layer 28               
         1         1         1         1         1         1         1         1         1         1         1         1         1         1         1         1         1         1         1         1         1         1         1         1         1         1         1         1         1         1         1         1         1         1         1         1         1         1         1         1         1         1         1         1         1         1         1         1         1         1         1         1         1         1         1         1         1         1         1         1
INTERNAL               1    (60I10) -1 #ibound layer 29               
         1         1         1         1         1         1         1         1         1         1         1         1         1         1         1         1         1         1         1         1         1         1         1         1         1         1         1         1         1         1         1         1         1         1         1         1         1         1         1         1         1         1         1         1         1         1         1         1         1         1         1         1         1         1         1         1         1         1         1         1
INTERNAL               1    (60I10) -1 #ibound layer 30               
         1         1         1         1         1         1         1         1         1         1         1         1         1         1         1         1         1         1         1         1         1         1         1         1         1         1         1         1         1         1         1         1         1         1         1         1         1         1         1         1         1         1         1         1         1         1         1         1         1         1         1         1         1         1         1         1         1         1         1         1
   -999.99
INTERNAL               1  (60E15.6) -1 #strt layer 1                  
   1.250000E+01   1.750000E+01   2.250000E+01   2.750000E+01   3.250000E+01   3.750000E+01   4.250000E+01   4.750000E+01   5.250000E+01   5.750000E+01   6.250000E+01   6.750000E+01   7.250000E+01   7.750000E+01   8.250000E+01   8.750000E+01   9.250000E+01   9.750000E+01   1.025000E+02   1.075000E+02   1.125000E+02   1.175000E+02   1.225000E+02   1.275000E+02   1.325000E+02   1.375000E+02   1.425000E+02   1.475000E+02   1.525000E+02   1.575000E+02   1.625000E+02   1.675000E+02   1.725000E+02   1.775000E+02   1.825000E+02   1.875000E+02   1.925000E+02   1.975000E+02   2.025000E+02   2.075000E+02   2.125000E+02   2.175000E+02   2.225000E+02   2.275000E+02   2.325000E+02   2.375000E+02   2.425000E+02   2.475000E+02   2.525000E+02   2.575000E+02   2.625000E+02   2.675000E+02   2.725000E+02   2.775000E+02   2.825000E+02   2.875000E+02   2.925000E+02   2.975000E+02   3.025000E+02   3.075000E+02
INTERNAL               1  (60E15.6) -1 #strt layer 2                  
   1.000000E+01   1.000000E+01   1.000000E+01   1.000000E+01   1.000000E+01   1.000000E+01   1.000000E+01   1.000000E+01   1.000000E+01   1.000000E+01   1.000000E+01   1.000000E+01   1.000000E+01   1.000000E+01   1.000000E+01   1.000000E+01   1.000000E+01   1.000000E+01   1.000000E+01   1.000000E+01   1.000000E+01   1.000000E+01   1.000000E+01   1.000000E+01   1.000000E+01   1.000000E+01   1.000000E+01   1.000000E+01   1.000000E+01   1.000000E+01   1.000000E+01   1.000000E+01   1.000000E+01   1.000000E+01   1.000000E+01   1.000000E+01   1.000000E+01   1.000000E+01   1.000000E+01   1.000000E+01   1.000000E+01   1.000000E+01   1.000000E+01   1.000000E+01   1.000000E+01   1.000000E+01   1.000000E+01   1.000000E+01   1.000000E+01   1.000000E+01   1.000000E+01   1.000000E+01   1.000000E+01   1.000000E+01   1.000000E+01   1.000000E+01   1.000000E+01   1.000000E+01   1.000000E+01   1.000000E+01
INTERNAL               1  (60E15.6) -1 #strt layer 3                  
   1.000000E+01   1.000000E+01   1.000000E+01   1.000000E+01   1.000000E+01   1.000000E+01   1.000000E+01   1.000000E+01   1.000000E+01   1.000000E+01   1.000000E+01   1.000000E+01   1.000000E+01   1.000000E+01   1.000000E+01   1.000000E+01   1.000000E+01   1.000000E+01   1.000000E+01   1.000000E+01   1.000000E+01   1.000000E+01   1.000000E+01   1.000000E+01   1.000000E+01   1.000000E+01   1.000000E+01   1.000000E+01   1.000000E+01   1.000000E+01   1.000000E+01   1.000000E+01   1.000000E+01   1.000000E+01   1.000000E+01   1.000000E+01   1.000000E+01   1.000000E+01   1.000000E+01   1.000000E+01   1.000000E+01   1.000000E+01   1.000000E+01   1.000000E+01   1.000000E+01   1.000000E+01   1.000000E+01   1.000000E+01   1.000000E+01   1.000000E+01   1.000000E+01   1.000000E+01   1.000000E+01   1.000000E+01   1.000000E+01   1.000000E+01   1.000000E+01   1.000000E+01   1.000000E+01   1.000000E+01
INTERNAL               1  (60E15.6) -1 #strt layer 4                  
   1.000000E+01   1.000000E+01   1.000000E+01   1.000000E+01   1.000000E+01   1.000000E+01   1.000000E+01   1.000000E+01   1.000000E+01   1.000000E+01   1.000000E+01   1.000000E+01   1.000000E+01   1.000000E+01   1.000000E+01   1.000000E+01   1.000000E+01   1.000000E+01   1.000000E+01   1.000000E+01   1.000000E+01   1.000000E+01   1.000000E+01   1.000000E+01   1.000000E+01   1.000000E+01   1.000000E+01   1.000000E+01   1.000000E+01   1.000000E+01   1.000000E+01   1.000000E+01   1.000000E+01   1.000000E+01   1.000000E+01   1.000000E+01   1.000000E+01   1.000000E+01   1.000000E+01   1.000000E+01   1.000000E+01   1.000000E+01   1.000000E+01   1.000000E+01   1.000000E+01   1.000000E+01   1.000000E+01   1.000000E+01   1.000000E+01   1.000000E+01   1.000000E+01   1.000000E+01   1.000000E+01   1.000000E+01   1.000000E+01   1.000000E+01   1.000000E+01   1.000000E+01   1.000000E+01   1.000000E+01
INTERNAL               1  (60E15.6) -1 #strt layer 5                  
   1.000000E+01   1.000000E+01   1.000000E+01   1.000000E+01   1.000000E+01   1.000000E+01   1.000000E+01   1.000000E+01   1.000000E+01   1.000000E+01   1.000000E+01   1.000000E+01   1.000000E+01   1.000000E+01   1.000000E+01   1.000000E+01   1.000000E+01   1.000000E+01   1.000000E+01   1.000000E+01   1.000000E+01   1.000000E+01   1.000000E+01   1.000000E+01   1.000000E+01   1.000000E+01   1.000000E+01   1.000000E+01   1.000000E+01   1.000000E+01   1.000000E+01   1.000000E+01   1.000000E+01   1.000000E+01   1.000000E+01   1.000000E+01   1.000000E+01   1.000000E+01   1.000000E+01   1.000000E+01   1.000000E+01   1.000000E+01   1.000000E+01   1.000000E+01   1.000000E+01   1.000000E+01   1.000000E+01   1.000000E+01   1.000000E+01   1.000000E+01   1.000000E+01   1.000000E+01   1.000000E+01   1.000000E+01   1.000000E+01   1.000000E+01   1.000000E+01   1.000000E+01   1.000000E+01   1.000000E+01
INTERNAL               1  (60E15.6) -1 #strt layer 6                  
   1.000000E+01   1.000000E+01   1.000000E+01   1.000000E+01   1.000000E+01   1.000000E+01   1.000000E+01   1.000000E+01   1.000000E+01   1.000000E+01   1.000000E+01   1.000000E+01   1.000000E+01   1.000000E+01   1.000000E+01   1.000000E+01   1.000000E+01   1.000000E+01   1.000000E+01   1.000000E+01   1.000000E+01   1.000000E+01   1.000000E+01   1.000000E+01   1.000000E+01   1.000000E+01   1.000000E+01   1.000000E+01   1.000000E+01   1.000000E+01   1.000000E+01   1.000000E+01   1.000000E+01   1.000000E+01   1.000000E+01   1.000000E+01   1.000000E+01   1.000000E+01   1.000000E+01   1.000000E+01   1.000000E+01   1.000000E+01   1.000000E+01   1.000000E+01   1.000000E+01   1.000000E+01   1.000000E+01   1.000000E+01   1.000000E+01   1.000000E+01   1.000000E+01   1.000000E+01   1.000000E+01   1.000000E+01   1.000000E+01   1.000000E+01   1.000000E+01   1.000000E+01   1.000000E+01   1.000000E+01
INTERNAL               1  (60E15.6) -1 #strt layer 7                  
   1.000000E+01   1.000000E+01   1.000000E+01   1.000000E+01   1.000000E+01   1.000000E+01   1.000000E+01   1.000000E+01   1.000000E+01   1.000000E+01   1.000000E+01   1.000000E+01   1.000000E+01   1.000000E+01   1.000000E+01   1.000000E+01   1.000000E+01   1.000000E+01   1.000000E+01   1.000000E+01   1.000000E+01   1.000000E+01   1.000000E+01   1.000000E+01   1.000000E+01   1.000000E+01   1.000000E+01   1.000000E+01   1.000000E+01   1.000000E+01   1.000000E+01   1.000000E+01   1.000000E+01   1.000000E+01   1.000000E+01   1.000000E+01   1.000000E+01   1.000000E+01   1.000000E+01   1.000000E+01   1.000000E+01   1.000000E+01   1.000000E+01   1.000000E+01   1.000000E+01   1.000000E+01   1.000000E+01   1.000000E+01   1.000000E+01   1.000000E+01   1.000000E+01   1.000000E+01   1.000000E+01   1.000000E+01   1.000000E+01   1.000000E+01   1.000000E+01   1.000000E+01   1.000000E+01   1.000000E+01
INTERNAL               1  (60E15.6) -1 #strt layer 8                  
   1.000000E+01   1.000000E+01   1.000000E+01   1.000000E+01   1.000000E+01   1.000000E+01   1.000000E+01   1.000000E+01   1.000000E+01   1.000000E+01   1.000000E+01   1.000000E+01   1.000000E+01   1.000000E+01   1.000000E+01   1.000000E+01   1.000000E+01   1.000000E+01   1.000000E+01   1.000000E+01   1.000000E+01   1.000000E+01   1.000000E+01   1.000000E+01   1.000000E+01   1.000000E+01   1.000000E+01   1.000000E+01   1.000000E+01   1.000000E+01   1.000000E+01   1.000000E+01   1.000000E+01   1.000000E+01   1.000000E+01   1.000000E+01   1.000000E+01   1.000000E+01   1.000000E+01   1.000000E+01   1.000000E+01   1.000000E+01   1.000000E+01   1.000000E+01   1.000000E+01   1.000000E+01   1.000000E+01   1.000000E+01   1.000000E+01   1.000000E+01   1.000000E+01   1.000000E+01   1.000000E+01   1.000000E+01   1.000000E+01   1.000000E+01   1.000000E+01   1.000000E+01   1.000000E+01   1.000000E+01
INTERNAL               1  (60E15.6) -1 #strt layer 9                  
   1.000000E+01   1.000000E+01   1.000000E+01   1.000000E+01   1.000000E+01   1.000000E+01   1.000000E+01   1.000000E+01   1.000000E+01   1.000000E+01   1.000000E+01   1.000000E+01   1.000000E+01   1.000000E+01   1.000000E+01   1.000000E+01   1.000000E+01   1.000000E+01   1.000000E+01   1.000000E+01   1.000000E+01   1.000000E+01   1.000000E+01   1.000000E+01   1.000000E+01   1.000000E+01   1.000000E+01   1.000000E+01   1.000000E+01   1.000000E+01   1.000000E+01   1.000000E+01   1.000000E+01   1.000000E+01   1.000000E+01   1.000000E+01   1.000000E+01   1.000000E+01   1.000000E+01   1.000000E+01   1.000000E+01   1.000000E+01   1.000000E+01   1.000000E+01   1.000000E+01   1.000000E+01   1.000000E+01   1.000000E+01   1.000000E+01   1.000000E+01   1.000000E+01   1.000000E+01   1.000000E+01   1.000000E+01   1.000000E+01   1.000000E+01   1.000000E+01   1.000000E+01   1.000000E+01   1.000000E+01
INTERNAL               1  (60E15.6) -1 #strt layer 10                 
   1.000000E+01   1.000000E+01   1.000000E+01   1.000000E+01   1.000000E+01   1.000000E+01   1.000000E+01   1.000000E+01   1.000000E+01   1.000000E+01   1.000000E+01   1.000000E+01   1.000000E+01   1.000000E+01   1.000000E+01   1.000000E+01   1.000000E+01   1.000000E+01   1.000000E+01   1.000000E+01   1.000000E+01   1.000000E+01   1.000000E+01   1.000000E+01   1.000000E+01   1.000000E+01   1.000000E+01   1.000000E+01   1.000000E+01   1.000000E+01   1.000000E+01   1.000000E+01   1.000000E+01   1.000000E+01   1.000000E+01   1.000000E+01   1.000000E+01   1.000000E+01   1.000000E+01   1.000000E+01   1.000000E+01   1.000000E+01   1.000000E+01   1.000000E+01   1.000000E+01   1.000000E+01   1.000000E+01   1.000000E+01   1.000000E+01   1.000000E+01   1.000000E+01   1.000000E+01   1.000000E+01   1.000000E+01   1.000000E+01   1.000000E+01   1.000000E+01   1.000000E+01   1.000000E+01   1.000000E+01