# Name file for MODFLOW-2005, generated by Flopy version 3.3.5.
#None; start_datetime:None
LIST               2  tothe.list

