# Name file for MODFLOW-2005, generated by Flopy version 3.3.5.
#xll:0.0; yll:0.0; rotation:0.0; units:meters; lenuni:2; start_datetime:1-1-1970
LIST               2  tothe.list
DIS               11  tothe.dis
BAS6              13  tothe.bas
LPF               15  tothe.lpf
PCG               27  tothe.pcg
OC                14  tothe.oc
DATA(BINARY)      42  tothe.cbc REPLACE
DATA(BINARY)      51  tothe.hds REPLACE
